ipss.test.plugin.core/testData/adpter/psse/json/ieee9_export.rawx
{"general":{"version":"36.1"},"network":{"caseid":{"fields":["ic","sbase","rev","xfrrat","nxfrat","basfrq","title1","title2"],"data":[0.0,100.0,36.0,0.0,1.0,50.0,"00/00/01                      100.0  0    0","0"]},"general":{"fields":["thrshz","pqbrak","blowup","maxisollvls","camaxreptsln","chkdupcntlbl"],"data":[1.0E-4,0.7,5.0,4.0,20.0,0.0]},"gauss":{"fields":["itmx","accp","accq","accm","tol"],"data":[100.0,1.6,1.6,1.0,1.0E-4]},"newton":{"fields":["itmxn","accn","toln","vctolq","vctolv","dvlim","ndvfct"],"data":[20.0,1.0,0.1,0.1,1.0E-5,0.99,0.99]},"adjust":{"fields":["adjthr","acctap","taplim","swvbnd","mxtpss","mxswim"],"data":[0.005,1.0,0.0,100.0,99.0,10.0]},"tysl":{"fields":["itmxty","accty","tolty"],"data":[20.0,1.0,1.0E-5]},"rating":{"fields":["irate","name","desc"],"data":[[1.0,"RATE1","RATING SET 1"],[2.0,"RATE2","RATING SET 2"],[3.0,"RATE3","RATING SET 3"],[4.0,"RATE4","RATING SET 4"],[5.0,"RATE5","RATING SET 5"],[6.0,"RATE6","RATING SET 6"],[7.0,"RATE7","RATING SET 7"],[8.0,"RATE8","RATING SET 8"],[9.0,"RATE9","RATING SET 9"],[10.0,"RATE10","RATING SET 10"],[11.0,"RATE11","RATING SET 11"],[12.0,"RATE12","RATING SET 12"]]},"swdratnam":{"fields":["irate","rnam","rtyp","unit","desc"],"data":[[1.0,"RATE1",0.0,"MVA","SWD RATING SET 1"],[2.0,"RATE2",0.0,"MVA","SWD RATING SET 2"],[3.0,"RATE3",0.0,"MVA","SWD RATING SET 3"],[4.0,"RATE4",0.0,"MVA","SWD RATING SET 4"],[5.0,"RATE5",0.0,"MVA","SWD RATING SET 5"],[6.0,"RATE6",0.0,"MVA","SWD RATING SET 6"],[7.0,"RATE7",0.0,"MVA","SWD RATING SET 7"],[8.0,"RATE8",0.0,"MVA","SWD RATING SET 8"],[9.0,"RATE9",0.0,"MVA","SWD RATING SET 9"],[10.0,"RATE10",0.0,"MVA","SWD RATING SET 10"],[11.0,"RATE11",0.0,"MVA","SWD RATING SET 11"],[12.0,"RATE12",0.0,"MVA","SWD RATING SET 12"]]},"bus":{"fields":["ibus","name","baskv","ide","area","zone","owner","vm","va","nvhi","nvlo","evhi","evlo"],"data":[[1.0,"BUS-1",16.5,3.0,1.0,1.0,1.0,1.04,0.0,1.1,0.9,1.1,0.9],[2.0,"BUS-2",18.0,2.0,1.0,1.0,1.0,1.025,9.31593391727225,1.1,0.9,1.1,0.9],[3.0,"BUS-3",13.8,2.0,1.0,1.0,1.0,1.025,4.70075528534782,1.1,0.9,1.1,0.9],[4.0,"BUS-4",230.0,1.0,1.0,1.0,1.0,1.0259655348717276,-2.1818970109948905,1.1,0.9,1.1,0.9],[5.0,"BUS-5",230.0,1.0,1.0,1.0,1.0,0.9957635492123055,-3.9531203794051715,1.1,0.9,1.1,0.9],[6.0,"BUS-6",230.0,1.0,1.0,1.0,1.0,1.0127858945934292,-3.651631206356095,1.1,0.9,1.1,0.9],[7.0,"BUS-7",230.0,1.0,1.0,1.0,1.0,1.0258059665655648,3.7557442518546327,1.1,0.9,1.1,0.9],[8.0,"BUS-8",230.0,1.0,1.0,1.0,1.0,1.0159185556349541,0.7636796469048842,1.1,0.9,1.1,0.9],[9.0,"BUS-9",230.0,1.0,1.0,1.0,1.0,1.0323873007573567,2.0027825172396376,1.1,0.9,1.1,0.9]]},"load":{"fields":["ibus","loadid","stat","area","zone","pl","ql","ip","iq","yp","yq","owner","scale","intrpt","dgenp","dgenq","dgenm","loadtype","name"],"data":[[5.0,"1",1.0,1.0,1.0,125.0,50.0,0.0,0.0,0.0,0.0,1.0,1.0,0.0,0.0,0.0,0.0,"",""],[6.0,"1",1.0,1.0,1.0,90.0,30.0,0.0,0.0,0.0,0.0,1.0,1.0,0.0,0.0,0.0,0.0,"",""],[8.0,"1",1.0,1.0,1.0,100.0,35.0,0.0,0.0,0.0,0.0,1.0,1.0,0.0,0.0,0.0,0.0,"",""]]},"fixshunt":{"fields":["ibus","shntid","stat","gl","bl","name"],"data":[]},"voltagedroop":{"fields":["name","status","regbus","qdb","qmin","qmax","vdblow","vdbhigh","vlow","vhigh"],"data":[]},"generator":{"fields":["ibus","machid","pg","qg","qt","qb","vs","ireg","nreg","mbase","zr","zx","rt","xt","gtap","stat","rmpct","pt","pb","baslod","o1","f1","o2","f2","o3","f3","o4","f4","wmod","wpf","droopname","name"],"data":[[1.0,"1",71.64,27.05,9999.0,-9999.0,1.04,1.0,0.0,100.0,0.0,0.04,0.0,0.0,1.0,1.0,100.0,9999.0,-9999.0,0.0,1.0,1.0,null,null,null,null,null,null,null,null,null,null],[2.0,"1",163.0,6.65,9999.0,-9999.0,1.025,2.0,0.0,100.0,0.0,0.089,0.0,0.0,1.0,1.0,100.0,9999.0,-9999.0,0.0,1.0,1.0,null,null,null,null,null,null,null,null,null,null],[3.0,"1",85.0,-10.86,99990.0,-99990.0,1.025,3.0,0.0,100.0,0.0,0.107,0.0,0.0,1.0,1.0,100.0,9999.0,-9999.0,0.0,1.0,1.0,null,null,null,null,null,null,null,null,null,null]]},"swdratset":{"fields":["rsetnam","desc","rate1","rate2","rate3","rate4","rate5","rate6","rate7","rate8","rate9","rate10","rate11","rate12"],"data":[]},"acline":{"fields":["ibus","jbus","ckt","rpu","xpu","bpu","name","rate1","rate2","rate3","rate4","rate5","rate6","rate7","rate8","rate9","rate10","rate11","rate12","gi","bi","gj","bj","stat","bp","met","len","o1","f1","o2","f2","o3","f3","o4","f4"],"data":[[4.0,5.0,"0",0.01,0.085,0.176,"",0.0,0.0,0.0,0.0,0.0,0.0,0.0,0.0,0.0,0.0,0.0,0.0,0.0,0.0,0.0,0.0,1.0,0.0,2.0,0.0,1.0,1.0,null,null,null,null,null,null],[4.0,6.0,"0",0.017,0.092,0.158,"",0.0,0.0,0.0,0.0,0.0,0.0,0.0,0.0,0.0,0.0,0.0,0.0,0.0,0.0,0.0,0.0,1.0,0.0,2.0,0.0,1.0,1.0,null,null,null,null,null,null],[5.0,7.0,"0",0.032,0.161,0.306,"",0.0,0.0,0.0,0.0,0.0,0.0,0.0,0.0,0.0,0.0,0.0,0.0,0.0,0.0,0.0,0.0,1.0,0.0,2.0,0.0,1.0,1.0,null,null,null,null,null,null],[6.0,9.0,"0",0.039,0.17,0.358,"",0.0,0.0,0.0,0.0,0.0,0.0,0.0,0.0,0.0,0.0,0.0,0.0,0.0,0.0,0.0,0.0,1.0,0.0,2.0,0.0,1.0,1.0,null,null,null,null,null,null],[7.0,8.0,"0",0.0085,0.072,0.149,"",0.0,0.0,0.0,0.0,0.0,0.0,0.0,0.0,0.0,0.0,0.0,0.0,0.0,0.0,0.0,0.0,1.0,0.0,1.0,0.0,1.0,1.0,null,null,null,null,null,null],[8.0,9.0,"0",0.0119,0.1008,0.209,"",0.0,0.0,0.0,0.0,0.0,0.0,0.0,0.0,0.0,0.0,0.0,0.0,0.0,0.0,0.0,0.0,1.0,0.0,2.0,0.0,1.0,1.0,null,null,null,null,null,null]]},"sysswd":{"fields":["ibus","jbus","ckt","xpu","rsetnam","stat","nstat","met","stype","name"],"data":[]},"transformer":{"fields":["ibus","jbus","kbus","ckt","cw","cz","cm","mag1","mag2","nmet","name","stat","o1","f1","o2","f2","o3","f3","o4","f4","vecgrp","zcod","r1_2","x1_2","sbase1_2","r2_3","x2_3","sbase2_3","r3_1","x3_1","sbase3_1","vmstar","anstar","windv1","nomv1","ang1","wdg1rate1","wdg1rate2","wdg1rate3","wdg1rate4","wdg1rate5","wdg1rate6","wdg1rate7","wdg1rate8","wdg1rate9","wdg1rate10","wdg1rate11","wdg1rate12","cod1","cont1","node1","rma1","rmi1","vma1","vmi1","ntp1","tab1","cr1","cx1","cnxa1","windv2","nomv2","ang2","wdg2rate1","wdg2rate2","wdg2rate3","wdg2rate4","wdg2rate5","wdg2rate6","wdg2rate7","wdg2rate8","wdg2rate9","wdg2rate10","wdg2rate11","wdg2rate12","cod2","cont2","node2","rma2","rmi2","vma2","vmi2","ntp2","tab2","cr2","cx2","cnxa2","windv3","nomv3","ang3","wdg3rate1","wdg3rate2","wdg3rate3","wdg3rate4","wdg3rate5","wdg3rate6","wdg3rate7","wdg3rate8","wdg3rate9","wdg3rate10","wdg3rate11","wdg3rate12","cod3","cont3","node3","rma3","rmi3","vma3","vmi3","ntp3","tab3","cr3","cx3","cnxa3"],"data":[[1.0,4.0,0.0,"1",1.0,1.0,1.0,0.0,0.0,2.0,"GEN1_TO_BUS1_CIRID_1",1.0,1.0,1.0,0.0,1.0,0.0,1.0,0.0,1.0,"",null,0.0,0.0567,100.0,null,null,null,null,null,null,null,null,1.0,16.5,0.0,0.0,0.0,0.0,0.0,0.0,0.0,0.0,0.0,0.0,0.0,0.0,0.0,0.0,0.0,0.0,1.1,0.9,1.1,0.9,33.0,0.0,0.0,0.0,0.0,1.0,230.0,null,null,null,null,null,null,null,null,null,null,null,null,null,null,null,null,null,null,null,null,null,null,null,null,null,null,null,null,null,null,null,null,null,null,null,null,null,null,null,null,null,null,null,null,null,null,null,null,null,null,null,null],[2.0,7.0,0.0,"1",1.0,1.0,1.0,0.0,0.0,2.0,"GEN2_TO_BUS2_CIRID_1",1.0,1.0,1.0,0.0,1.0,0.0,1.0,0.0,1.0,"",null,0.0,0.0625,100.0,null,null,null,null,null,null,null,null,1.0,18.0,0.0,0.0,0.0,0.0,0.0,0.0,0.0,0.0,0.0,0.0,0.0,0.0,0.0,0.0,0.0,0.0,1.1,0.9,1.1,0.9,33.0,0.0,0.0,0.0,0.0,1.0,230.0,null,null,null,null,null,null,null,null,null,null,null,null,null,null,null,null,null,null,null,null,null,null,null,null,null,null,null,null,null,null,null,null,null,null,null,null,null,null,null,null,null,null,null,null,null,null,null,null,null,null,null,null],[3.0,9.0,0.0,"1",1.0,1.0,1.0,0.0,0.0,2.0,"GEN3_TO_BUS3_CIRID_1",1.0,1.0,1.0,0.0,1.0,0.0,1.0,0.0,1.0,"",null,0.0,0.0586,100.0,null,null,null,null,null,null,null,null,1.0,13.8,0.0,0.0,0.0,0.0,0.0,0.0,0.0,0.0,0.0,0.0,0.0,0.0,0.0,0.0,0.0,0.0,1.1,0.9,1.1,0.9,33.0,0.0,0.0,0.0,0.0,1.0,230.0,null,null,null,null,null,null,null,null,null,null,null,null,null,null,null,null,null,null,null,null,null,null,null,null,null,null,null,null,null,null,null,null,null,null,null,null,null,null,null,null,null,null,null,null,null,null,null,null,null,null,null,null]]},"area":{"fields":["iarea","isw","pdes","ptol","arname"],"data":[]},"twotermdc":{"fields":["name","mdc","rdc","setvl","vschd","vcmod","rcomp","delti","met","dcvmin","cccitmx","cccacc","ipr","nbr","anmxr","anmnr","rcr","xcr","ebasr","trr","tapr","tmxr","tmnr","stpr","icr","ndr","ifr","itr","idr","xcapr","ipi","nbi","anmxi","anmni","rci","xci","ebasi","tri","tapi","tmxi","tmni","stpi","ici","ndi","ifi","iti","idi","xcapi"],"data":[]},"vscdc":{"fields":["name","mdc","rdc","o1","f1","o2","f2","o3","f3","o4","f4","ibus1","type1","mode1","dcset1","acset1","aloss1","bloss1","minloss1","smax1","imax1","pwf1","maxq1","minq1","vsreg1","nreg1","rmpct1","ibus2","type2","mode2","dcset2","acset2","aloss2","bloss2","minloss2","smax2","imax2","pwf2","maxq2","minq2","vsreg2","nreg2","rmpct2"],"data":[]},"impcor":{"fields":["itable","tap","refact","imfact"],"data":[]},"ntermdc":{"fields":["name","nconv","ndcbs","ndcln","mdc","vconv","vcmod","vconvn"],"data":[]},"ntermdcconv":{"fields":["name","ib","nbrdg","angmx","angmn","rc","xc","ebas","tr","tap","tpmx","tpmn","tstp","setvl","dcpf","marg","cnvcod"],"data":[]},"ntermdcbus":{"fields":["name","idc","ib","area","zone","dcname","idc2","rgrnd","owner"],"data":[]},"ntermdclink":{"fields":["name","idc","jdc","dcckt","met","rdc","ldc"],"data":[]},"msline":{"fields":["ibus","jbus","mslid","met","dum1","dum2","dum3","dum4","dum5","dum6","dum7","dum8","dum9"],"data":[]},"zone":{"fields":["izone","zoname"],"data":[]},"iatrans":{"fields":["arfrom","arto","trid","ptran"],"data":[]},"owner":{"fields":["iowner","owname"],"data":[]},"facts":{"fields":["name","ibus","jbus","mode","pdes","qdes","vset","shmx","trmx","vtmn","vtmx","vsmx","imx","linx","rmpct","owner","set1","set2","vsref","fcreg","nreg","mname"],"data":[]},"swshunt":{"fields":["ibus","shntid","modsw","adjm","stat","vswhi","vswlo","swreg","nreg","rmpct","rmidnt","binit","name","s1","n1","b1","s2","n2","b2","s3","n3","b3","s4","n4","b4","s5","n5","b5","s6","n6","b6","s7","n7","b7","s8","n8","b8"],"data":[]},"gne":{"fields":["name","model","nterm","bus1","bus2","nreal","nintg","nchar","stat","owner","nmet","real1","real2","real3","real4","real5","real6","real7","real8","real9","real10","intg1","intg2","intg3","intg4","intg5","intg6","intg7","intg8","intg9","intg10","char1","char2","char3","char4","char5","char6","char7","char8","char9","char10"],"data":[]},"indmach":{"fields":["ibus","imid","stat","sc","dc","area","zone","owner","name","tc","bc","mbase","ratekv","pcode","pset","hconst","aconst","bconst","dconst","econst","ra","xa","xm","r1","x1","r2","x2","x3","e1","se1","e2","se2","ia1","ia2","xamult"],"data":[]},"loadtype":{"fields":["name","desc"],"data":[]},"interface":{"fields":["name","inum","type","ratmax1","ratmax2","ratmax3","ratmax4","ratmax5","ratmax6","ratmax7","ratmax8","ratmax9","ratmax10","ratmax11","ratmax12","ratmin1","ratmin2","ratmin3","ratmin4","ratmin5","ratmin6","ratmin7","ratmin8","ratmin9","ratmin10","ratmin11","ratmin12"],"data":[]},"itfelmt":{"fields":["name","type","inum","jnum","knum","namid","dirctn","imet","weight"],"data":[]},"sub":{"fields":["isub","name","lati","long","srg"],"data":[]},"subnode":{"fields":["isub","inode","name","ibus","stat","vm","va"],"data":[]},"subswd":{"fields":["isub","inode","jnode","swdid","name","type","stat","nstat","xpu","rsetnam"],"data":[]},"subterm":{"fields":["isub","inode","type","eqid","ibus","jbus","kbus"],"data":[]}}}